Circuit: * C:\Users\kavya\Desktop\Spice64\bin\ppppppp\filter.asc

Direct Newton iteration for .op point succeeded.

Date: Thu Mar 05 17:52:32 2026
Total elapsed time: 0.031 seconds.

tnom = 27
temp = 27
method = trap
totiter = 13
traniter = 0
tranpoints = 0
accept = 0
rejected = 0
matrix size = 32
fillins = 45
solver = Normal
Matrix Compiler1:     215 opcodes
Matrix Compiler2: 3.33 KB object code size
