Circuit: * C:\Users\kavya\Desktop\Spice64\bin\ppppppp\gain.asc

Warning: Multiple definitions of model "2scr375p" Type: BJT
Warning: Multiple definitions of model "bc857b" Type: BJT
Warning: Multiple definitions of model "bc847c" Type: BJT
Warning: Multiple definitions of model "bc847b" Type: BJT
WARNING: Node NC_01 is floating.

WARNING: Less than two connections to node NC_01.  This node is used by C2.
Direct Newton iteration for .op point succeeded.

Date: Thu Mar 05 17:40:47 2026
Total elapsed time: 0.038 seconds.

tnom = 27
temp = 27
method = modified trap
totiter = 2094
traniter = 2089
tranpoints = 1042
accept = 1042
rejected = 0
matrix size = 14
fillins = 1
solver = Normal
Matrix Compiler1: 778 bytes object code size  0.2/0.1/[0.2]
Matrix Compiler2: 1.06 KB object code size  0.1/0.2/[0.1]

