Circuit: * C:\Users\kavya\Desktop\Spice64\bin\ppppppp\fullpp4.asc

Warning: Multiple definitions of model "2scr375p" Type: BJT
Warning: Multiple definitions of model "bc857b" Type: BJT
Warning: Multiple definitions of model "bc847c" Type: BJT
Warning: Multiple definitions of model "bc847b" Type: BJT
Direct Newton iteration for .op point succeeded.
Note: .fourier statements are only valid with a .tran command.
      No Fourier analysis performed.


Date: Thu Mar 05 22:39:18 2026
Total elapsed time: 0.102 seconds.

tnom = 27
temp = 27
method = trap
totiter = 13
traniter = 0
tranpoints = 0
accept = 0
rejected = 0
matrix size = 70
fillins = 63
solver = Normal
Matrix Compiler1:     405 opcodes
Matrix Compiler2: 6.84 KB object code size
